Metadata-Version: 2.1
Name: dynaFEHMtools
Version: 0.0.1.dev0
Summary: Tools for FE head model data condensation in LS-DYNA
Home-page: https://github.com/turnerjennings/dynaFEHMtools
Author: Turner Jennings
Author-email: turner.jennings@outlook.com
License: LICENSE.txt
Classifier: Development Status :: 3 - Alpha
Classifier: Intended Audience :: Science/Research
Classifier: License :: OSI Approved :: MIT License
Classifier: Natural Language :: English
Classifier: Topic :: Scientific/Engineering
License-File: LICENSE.txt
